**********************
* Autodesk EAGLE - Spice Model File
* Date: 9/17/17
* basic diode intrinsic model
**********************
.MODEL DMOD D (IS=1 RS=1.9 N=2)