**********************
* Autodesk EAGLE - Spice Model File
* Date: 9/17/17
* basic pfet intrinsic model
**********************
.MODEL PFET PMOS (LEVEL=1 VTO=0.5)