*
.MODEL VSMOD SW(VT=0.5V VH=-0.5 RON=0.001 ROFF=1e12)