*
.MODEL VSMOD SW(VT=0.5 VH=-0.5 RON=0.001 ROFF=1e12)
S1 VCC VOUT FB GND VSMOD ON